--------- BEAMDYN with OpenFAST INPUT FILE -------------------------------------------
NREL 5MW blade
---------------------- SIMULATION CONTROL -------------------------------------------
False         Echo             - Echo  input data to "<RootName>.ech"? (flag)
true          QuasiStaticInit  - Use quasistatic pre-conditioning with centripetal  accelerations in initialization? (flag) [dynamic solve only]
        1.0   rhoinf           - Numerical damping parameter for generalized-alpha integrator
          2   quadrature       - Quadrature method: 1=Gaussian; 2=Trapezoidal (switch)
"DEFAULT"     refine           - Refinement factor for trapezoidal quadrature (-) [DEFAULT = 1; used only when   quadrature=2]
"DEFAULT"     n_fact           -   Factorization frequency for the Jacobian in N-R iteration(-) [DEFAULT = 5]
DEFAULT       DTBeam           - Time step size (s)
"DEFAULT"     load_retries  -   Number of factored load retries before quitting the aimulation [DEFAULT = 20]
10000         NRMax            - Max  number of iterations in Newton-Raphson algorithm (-) [DEFAULT = 10]
1.0e-8        stop_tol         -   Tolerance for stopping criterion (-) [DEFAULT = 1E-5]
"DEFAULT"     tngt_stf_fd      -    Use finite differenced tangent stiffness matrix? (flag)
"DEFAULT"     tngt_stf_comp       - Compare analytical finite differenced tangent stiffness matrix? (flag)
"DEFAULT"     tngt_stf_pert       - Perturbation size for finite differencing (-) [DEFAULT = 1E-6]
"DEFAULT"     tngt_stf_difftol - Maximum allowable relative difference between analytical and  fd tangent stiffness (-); [DEFAULT = 0.1]
True          RotStates        -  Orient states in the rotating frame during linearization? (flag) [used only when     linearizing]
---------------------- GEOMETRY PARAMETER ------------------------------------------
          1   member_total    - Total number of members (-)
         20   kp_total        - Total number of key points (-) [must be at least 3]
     1     20                 - Member    number; Number of key points in this member 
   kp_xr         kp_yr         kp_zr        initial_twist
   (m)            (m)          (m)            (deg)
0.0000000E+00  0.0000000E+00  0.0000000E+00  1.3308000E+01
0.0000000E+00  0.0000000E+00  3.2368421E+00  1.3308000E+01
0.0000000E+00  0.0000000E+00  6.4736842E+00  1.3308000E+01
0.0000000E+00  0.0000000E+00  9.7105263E+00  1.3308000E+01
0.0000000E+00  0.0000000E+00  1.2947368E+01  1.2176924E+01
0.0000000E+00  0.0000000E+00  1.6184211E+01  1.0868153E+01
0.0000000E+00  0.0000000E+00  1.9421053E+01  9.8890911E+00
0.0000000E+00  0.0000000E+00  2.2657895E+01  8.9792925E+00
0.0000000E+00  0.0000000E+00  2.5894737E+01  8.0214088E+00
0.0000000E+00  0.0000000E+00  2.9131579E+01  7.0318552E+00
0.0000000E+00  0.0000000E+00  3.2368421E+01  6.0744808E+00
0.0000000E+00  0.0000000E+00  3.5605263E+01  5.1440494E+00
0.0000000E+00  0.0000000E+00  3.8842105E+01  4.2187615E+00
0.0000000E+00  0.0000000E+00  4.2078947E+01  3.3405270E+00
0.0000000E+00  0.0000000E+00  4.5315789E+01  2.6748163E+00
0.0000000E+00  0.0000000E+00  4.8552632E+01  2.0477289E+00
0.0000000E+00  0.0000000E+00  5.1789474E+01  1.4215058E+00
0.0000000E+00  0.0000000E+00  5.5026316E+01  7.9402766E-01
0.0000000E+00  0.0000000E+00  5.8263158E+01  2.4860876E-01
0.0000000E+00  0.0000000E+00  6.1500000E+01  1.0600483E-01
---------------------- MESH PARAMETER ------------------------------------------
          8   order_elem     - Order of interpolation (basis) function (-)
---------------------- MATERIAL PARAMETER ---------------------------------------
"sn5_BDblade.dat"   BldFile - Name of file containing properties for blade (quoted    string)
----------------------PITCH ACTUATOR PARAMETERS---------------------------------
False         UsePitchAct -     Whether a pitch actuator should be used (flag)
      200.0     PitchJ      - Pitch actuator inertia (kg-m^2) [used only when UsePitchAct is true]    
      2.0e7     PitchK      - Pitch actuator stiffness (kg-m^2/s^2) [used only when UsePitchAct   is true]
   500000.0     PitchC      - Pitch actuator damping (kg-m^2/s) [used only when UsePitchAct is    true]
---------------------- OUTPUTS --------------------------------------------------
True          SumPrint       - Print   summary data to "<RootName>.sum" (flag)
"ES10.3E2"    OutFmt          - Format   used for text tabular output, excluding the time channel.
0                 NNodeOuts      - Number of nodes to output to file [0 - 9] (-)
          1   OutNd          - Nodes whose values   will be output  (-)
" "                  OutList        - The next line(s) contains a list of output   parameters. See OutListParameters.xlsx for a listing of available output  channels, (-)
"TipTDxr"  
"TipTDyr"  
"TipTDzr"  
"TipRDxr"  
"TipRDyr"  
"TipRDzr"  
END of input file (the word "END" must appear in the first 3columns of    this last OutList line)
---------------------- NODE OUTPUTS --------------------------------------------
          1   BldNd_BladesOut  - Blades to output
         99  - Blade nodes on each blade (currently unused)
"TDxr"                        OutList             - The next line(s) contains  list    of output parameters.  See s for a listing of available output channels, (-)
"TDyr"     
"TDzr"     
"AbsXg"    
"AbsYg"    
"AbsZg"    
"RDxr"     
"RDyr"     
"RDzr"     
"TVxr"     
"TVyr"     
"TVzr"     
"RVxr"     
"RVyr"     
"RVzr"     
"DFxr"     
"DFyr"     
"DFzr"     
END of input file (the word "END" must appear in the first  columns of    this last OutList line)