--------- BEAMDYN with OpenFAST INPUT FILE -------------------------------------------
NREL 5MW blade
---------------------- SIMULATION CONTROL -------------------------------------------
False         Echo             - Echo  input data to "<RootName>.ech"? (flag)
true          QuasiStaticInit  - Use quasistatic pre-conditioning with centripetal  accelerations in initialization? (flag) [dynamic solve only]
        1.0   rhoinf           - Numerical damping parameter for generalized-alpha integrator
          2   quadrature       - Quadrature method: 1=Gaussian; 2=Trapezoidal (switch)
"DEFAULT"     refine           - Refinement factor for trapezoidal quadrature (-) [DEFAULT = 1; used only when   quadrature=2]
"DEFAULT"     n_fact           -   Factorization frequency for the Jacobian in N-R iteration(-) [DEFAULT = 5]
DEFAULT       DTBeam           - Time step size (s)
"DEFAULT"     load_retries  -   Number of factored load retries before quitting the aimulation [DEFAULT = 20]
10000         NRMax            - Max  number of iterations in Newton-Raphson algorithm (-) [DEFAULT = 10]
1.0e-8        stop_tol         -   Tolerance for stopping criterion (-) [DEFAULT = 1E-5]
"DEFAULT"     tngt_stf_fd      -    Use finite differenced tangent stiffness matrix? (flag)
"DEFAULT"     tngt_stf_comp       - Compare analytical finite differenced tangent stiffness matrix? (flag)
"DEFAULT"     tngt_stf_pert       - Perturbation size for finite differencing (-) [DEFAULT = 1E-6]
"DEFAULT"     tngt_stf_difftol - Maximum allowable relative difference between analytical and  fd tangent stiffness (-); [DEFAULT = 0.1]
True          RotStates        -  Orient states in the rotating frame during linearization? (flag) [used only when     linearizing]
---------------------- GEOMETRY PARAMETER ------------------------------------------
          1   member_total    - Total number of members (-)
        500   kp_total        - Total number of key points (-) [must be at least 3]
     1     500                 - Member    number; Number of key points in this member 
   kp_xr         kp_yr         kp_zr        initial_twist
   (m)            (m)          (m)            (deg)
0.0000000E+00  0.0000000E+00  0.0000000E+00  1.3308000E+01
0.0000000E+00  0.0000000E+00  1.2324649E-01  1.3308000E+01
0.0000000E+00  0.0000000E+00  2.4649299E-01  1.3308000E+01
0.0000000E+00  0.0000000E+00  3.6973948E-01  1.3308000E+01
0.0000000E+00  0.0000000E+00  4.9298597E-01  1.3308000E+01
0.0000000E+00  0.0000000E+00  6.1623246E-01  1.3308000E+01
0.0000000E+00  0.0000000E+00  7.3947896E-01  1.3308000E+01
0.0000000E+00  0.0000000E+00  8.6272545E-01  1.3308000E+01
0.0000000E+00  0.0000000E+00  9.8597194E-01  1.3308000E+01
0.0000000E+00  0.0000000E+00  1.1092184E+00  1.3308000E+01
0.0000000E+00  0.0000000E+00  1.2324649E+00  1.3308000E+01
0.0000000E+00  0.0000000E+00  1.3557114E+00  1.3308000E+01
0.0000000E+00  0.0000000E+00  1.4789579E+00  1.3308000E+01
0.0000000E+00  0.0000000E+00  1.6022044E+00  1.3308000E+01
0.0000000E+00  0.0000000E+00  1.7254509E+00  1.3308000E+01
0.0000000E+00  0.0000000E+00  1.8486974E+00  1.3308000E+01
0.0000000E+00  0.0000000E+00  1.9719439E+00  1.3308000E+01
0.0000000E+00  0.0000000E+00  2.0951904E+00  1.3308000E+01
0.0000000E+00  0.0000000E+00  2.2184369E+00  1.3308000E+01
0.0000000E+00  0.0000000E+00  2.3416834E+00  1.3308000E+01
0.0000000E+00  0.0000000E+00  2.4649299E+00  1.3308000E+01
0.0000000E+00  0.0000000E+00  2.5881764E+00  1.3308000E+01
0.0000000E+00  0.0000000E+00  2.7114228E+00  1.3308000E+01
0.0000000E+00  0.0000000E+00  2.8346693E+00  1.3308000E+01
0.0000000E+00  0.0000000E+00  2.9579158E+00  1.3308000E+01
0.0000000E+00  0.0000000E+00  3.0811623E+00  1.3308000E+01
0.0000000E+00  0.0000000E+00  3.2044088E+00  1.3308000E+01
0.0000000E+00  0.0000000E+00  3.3276553E+00  1.3308000E+01
0.0000000E+00  0.0000000E+00  3.4509018E+00  1.3308000E+01
0.0000000E+00  0.0000000E+00  3.5741483E+00  1.3308000E+01
0.0000000E+00  0.0000000E+00  3.6973948E+00  1.3308000E+01
0.0000000E+00  0.0000000E+00  3.8206413E+00  1.3308000E+01
0.0000000E+00  0.0000000E+00  3.9438878E+00  1.3308000E+01
0.0000000E+00  0.0000000E+00  4.0671343E+00  1.3308000E+01
0.0000000E+00  0.0000000E+00  4.1903808E+00  1.3308000E+01
0.0000000E+00  0.0000000E+00  4.3136273E+00  1.3308000E+01
0.0000000E+00  0.0000000E+00  4.4368737E+00  1.3308000E+01
0.0000000E+00  0.0000000E+00  4.5601202E+00  1.3308000E+01
0.0000000E+00  0.0000000E+00  4.6833667E+00  1.3308000E+01
0.0000000E+00  0.0000000E+00  4.8066132E+00  1.3308000E+01
0.0000000E+00  0.0000000E+00  4.9298597E+00  1.3308000E+01
0.0000000E+00  0.0000000E+00  5.0531062E+00  1.3308000E+01
0.0000000E+00  0.0000000E+00  5.1763527E+00  1.3308000E+01
0.0000000E+00  0.0000000E+00  5.2995992E+00  1.3308000E+01
0.0000000E+00  0.0000000E+00  5.4228457E+00  1.3308000E+01
0.0000000E+00  0.0000000E+00  5.5460922E+00  1.3308000E+01
0.0000000E+00  0.0000000E+00  5.6693387E+00  1.3308000E+01
0.0000000E+00  0.0000000E+00  5.7925852E+00  1.3308000E+01
0.0000000E+00  0.0000000E+00  5.9158317E+00  1.3308000E+01
0.0000000E+00  0.0000000E+00  6.0390782E+00  1.3308000E+01
0.0000000E+00  0.0000000E+00  6.1623246E+00  1.3308000E+01
0.0000000E+00  0.0000000E+00  6.2855711E+00  1.3308000E+01
0.0000000E+00  0.0000000E+00  6.4088176E+00  1.3308000E+01
0.0000000E+00  0.0000000E+00  6.5320641E+00  1.3308000E+01
0.0000000E+00  0.0000000E+00  6.6553106E+00  1.3308000E+01
0.0000000E+00  0.0000000E+00  6.7785571E+00  1.3308000E+01
0.0000000E+00  0.0000000E+00  6.9018036E+00  1.3308000E+01
0.0000000E+00  0.0000000E+00  7.0250501E+00  1.3308000E+01
0.0000000E+00  0.0000000E+00  7.1482966E+00  1.3308000E+01
0.0000000E+00  0.0000000E+00  7.2715431E+00  1.3308000E+01
0.0000000E+00  0.0000000E+00  7.3947896E+00  1.3308000E+01
0.0000000E+00  0.0000000E+00  7.5180361E+00  1.3308000E+01
0.0000000E+00  0.0000000E+00  7.6412826E+00  1.3308000E+01
0.0000000E+00  0.0000000E+00  7.7645291E+00  1.3308000E+01
0.0000000E+00  0.0000000E+00  7.8877756E+00  1.3308000E+01
0.0000000E+00  0.0000000E+00  8.0110220E+00  1.3308000E+01
0.0000000E+00  0.0000000E+00  8.1342685E+00  1.3308000E+01
0.0000000E+00  0.0000000E+00  8.2575150E+00  1.3308000E+01
0.0000000E+00  0.0000000E+00  8.3807615E+00  1.3308000E+01
0.0000000E+00  0.0000000E+00  8.5040080E+00  1.3308000E+01
0.0000000E+00  0.0000000E+00  8.6272545E+00  1.3308000E+01
0.0000000E+00  0.0000000E+00  8.7505010E+00  1.3308000E+01
0.0000000E+00  0.0000000E+00  8.8737475E+00  1.3308000E+01
0.0000000E+00  0.0000000E+00  8.9969940E+00  1.3308000E+01
0.0000000E+00  0.0000000E+00  9.1202405E+00  1.3308000E+01
0.0000000E+00  0.0000000E+00  9.2434870E+00  1.3308000E+01
0.0000000E+00  0.0000000E+00  9.3667335E+00  1.3308000E+01
0.0000000E+00  0.0000000E+00  9.4899800E+00  1.3308000E+01
0.0000000E+00  0.0000000E+00  9.6132265E+00  1.3308000E+01
0.0000000E+00  0.0000000E+00  9.7364729E+00  1.3308000E+01
0.0000000E+00  0.0000000E+00  9.8597194E+00  1.3308000E+01
0.0000000E+00  0.0000000E+00  9.9829659E+00  1.3308000E+01
0.0000000E+00  0.0000000E+00  1.0106212E+01  1.3308000E+01
0.0000000E+00  0.0000000E+00  1.0229459E+01  1.3308000E+01
0.0000000E+00  0.0000000E+00  1.0352705E+01  1.3305449E+01
0.0000000E+00  0.0000000E+00  1.0475952E+01  1.3295861E+01
0.0000000E+00  0.0000000E+00  1.0599198E+01  1.3279508E+01
0.0000000E+00  0.0000000E+00  1.0722445E+01  1.3256762E+01
0.0000000E+00  0.0000000E+00  1.0845691E+01  1.3227999E+01
0.0000000E+00  0.0000000E+00  1.0968938E+01  1.3193593E+01
0.0000000E+00  0.0000000E+00  1.1092184E+01  1.3153916E+01
0.0000000E+00  0.0000000E+00  1.1215431E+01  1.3109344E+01
0.0000000E+00  0.0000000E+00  1.1338677E+01  1.3060251E+01
0.0000000E+00  0.0000000E+00  1.1461924E+01  1.3007010E+01
0.0000000E+00  0.0000000E+00  1.1585170E+01  1.2949997E+01
0.0000000E+00  0.0000000E+00  1.1708417E+01  1.2889583E+01
0.0000000E+00  0.0000000E+00  1.1831663E+01  1.2826145E+01
0.0000000E+00  0.0000000E+00  1.1954910E+01  1.2760056E+01
0.0000000E+00  0.0000000E+00  1.2078156E+01  1.2691690E+01
0.0000000E+00  0.0000000E+00  1.2201403E+01  1.2621420E+01
0.0000000E+00  0.0000000E+00  1.2324649E+01  1.2549623E+01
0.0000000E+00  0.0000000E+00  1.2447896E+01  1.2476670E+01
0.0000000E+00  0.0000000E+00  1.2571142E+01  1.2402937E+01
0.0000000E+00  0.0000000E+00  1.2694389E+01  1.2328797E+01
0.0000000E+00  0.0000000E+00  1.2817635E+01  1.2254624E+01
0.0000000E+00  0.0000000E+00  1.2940882E+01  1.2180794E+01
0.0000000E+00  0.0000000E+00  1.3064128E+01  1.2107679E+01
0.0000000E+00  0.0000000E+00  1.3187375E+01  1.2035653E+01
0.0000000E+00  0.0000000E+00  1.3310621E+01  1.1965092E+01
0.0000000E+00  0.0000000E+00  1.3433868E+01  1.1896368E+01
0.0000000E+00  0.0000000E+00  1.3557114E+01  1.1829857E+01
0.0000000E+00  0.0000000E+00  1.3680361E+01  1.1765931E+01
0.0000000E+00  0.0000000E+00  1.3803607E+01  1.1704966E+01
0.0000000E+00  0.0000000E+00  1.3926854E+01  1.1647335E+01
0.0000000E+00  0.0000000E+00  1.4050100E+01  1.1593412E+01
0.0000000E+00  0.0000000E+00  1.4173347E+01  1.1543572E+01
0.0000000E+00  0.0000000E+00  1.4296593E+01  1.1498188E+01
0.0000000E+00  0.0000000E+00  1.4419840E+01  1.1456804E+01
0.0000000E+00  0.0000000E+00  1.4543086E+01  1.1415791E+01
0.0000000E+00  0.0000000E+00  1.4666333E+01  1.1374692E+01
0.0000000E+00  0.0000000E+00  1.4789579E+01  1.1333523E+01
0.0000000E+00  0.0000000E+00  1.4912826E+01  1.1292302E+01
0.0000000E+00  0.0000000E+00  1.5036072E+01  1.1251046E+01
0.0000000E+00  0.0000000E+00  1.5159319E+01  1.1209773E+01
0.0000000E+00  0.0000000E+00  1.5282565E+01  1.1168499E+01
0.0000000E+00  0.0000000E+00  1.5405812E+01  1.1127241E+01
0.0000000E+00  0.0000000E+00  1.5529058E+01  1.1086018E+01
0.0000000E+00  0.0000000E+00  1.5652305E+01  1.1044845E+01
0.0000000E+00  0.0000000E+00  1.5775551E+01  1.1003741E+01
0.0000000E+00  0.0000000E+00  1.5898798E+01  1.0962722E+01
0.0000000E+00  0.0000000E+00  1.6022044E+01  1.0921805E+01
0.0000000E+00  0.0000000E+00  1.6145291E+01  1.0881008E+01
0.0000000E+00  0.0000000E+00  1.6268537E+01  1.0840349E+01
0.0000000E+00  0.0000000E+00  1.6391784E+01  1.0799843E+01
0.0000000E+00  0.0000000E+00  1.6515030E+01  1.0759508E+01
0.0000000E+00  0.0000000E+00  1.6638277E+01  1.0719362E+01
0.0000000E+00  0.0000000E+00  1.6761523E+01  1.0679422E+01
0.0000000E+00  0.0000000E+00  1.6884770E+01  1.0639704E+01
0.0000000E+00  0.0000000E+00  1.7008016E+01  1.0600227E+01
0.0000000E+00  0.0000000E+00  1.7131263E+01  1.0561006E+01
0.0000000E+00  0.0000000E+00  1.7254509E+01  1.0522060E+01
0.0000000E+00  0.0000000E+00  1.7377756E+01  1.0483406E+01
0.0000000E+00  0.0000000E+00  1.7501002E+01  1.0445060E+01
0.0000000E+00  0.0000000E+00  1.7624248E+01  1.0407040E+01
0.0000000E+00  0.0000000E+00  1.7747495E+01  1.0369364E+01
0.0000000E+00  0.0000000E+00  1.7870741E+01  1.0332047E+01
0.0000000E+00  0.0000000E+00  1.7993988E+01  1.0295108E+01
0.0000000E+00  0.0000000E+00  1.8117234E+01  1.0258564E+01
0.0000000E+00  0.0000000E+00  1.8240481E+01  1.0222431E+01
0.0000000E+00  0.0000000E+00  1.8363727E+01  1.0186728E+01
0.0000000E+00  0.0000000E+00  1.8486974E+01  1.0151457E+01
0.0000000E+00  0.0000000E+00  1.8610220E+01  1.0116419E+01
0.0000000E+00  0.0000000E+00  1.8733467E+01  1.0081530E+01
0.0000000E+00  0.0000000E+00  1.8856713E+01  1.0046779E+01
0.0000000E+00  0.0000000E+00  1.8979960E+01  1.0012155E+01
0.0000000E+00  0.0000000E+00  1.9103206E+01  9.9776453E+00
0.0000000E+00  0.0000000E+00  1.9226453E+01  9.9432381E+00
0.0000000E+00  0.0000000E+00  1.9349699E+01  9.9089217E+00
0.0000000E+00  0.0000000E+00  1.9472946E+01  9.8746842E+00
0.0000000E+00  0.0000000E+00  1.9596192E+01  9.8405139E+00
0.0000000E+00  0.0000000E+00  1.9719439E+01  9.8063988E+00
0.0000000E+00  0.0000000E+00  1.9842685E+01  9.7723273E+00
0.0000000E+00  0.0000000E+00  1.9965932E+01  9.7382873E+00
0.0000000E+00  0.0000000E+00  2.0089178E+01  9.7042671E+00
0.0000000E+00  0.0000000E+00  2.0212425E+01  9.6702549E+00
0.0000000E+00  0.0000000E+00  2.0335671E+01  9.6362387E+00
0.0000000E+00  0.0000000E+00  2.0458918E+01  9.6022069E+00
0.0000000E+00  0.0000000E+00  2.0582164E+01  9.5681475E+00
0.0000000E+00  0.0000000E+00  2.0705411E+01  9.5340487E+00
0.0000000E+00  0.0000000E+00  2.0828657E+01  9.4998987E+00
0.0000000E+00  0.0000000E+00  2.0951904E+01  9.4656857E+00
0.0000000E+00  0.0000000E+00  2.1075150E+01  9.4313977E+00
0.0000000E+00  0.0000000E+00  2.1198397E+01  9.3970230E+00
0.0000000E+00  0.0000000E+00  2.1321643E+01  9.3625498E+00
0.0000000E+00  0.0000000E+00  2.1444890E+01  9.3279661E+00
0.0000000E+00  0.0000000E+00  2.1568136E+01  9.2932602E+00
0.0000000E+00  0.0000000E+00  2.1691383E+01  9.2584203E+00
0.0000000E+00  0.0000000E+00  2.1814629E+01  9.2234344E+00
0.0000000E+00  0.0000000E+00  2.1937876E+01  9.1882909E+00
0.0000000E+00  0.0000000E+00  2.2061122E+01  9.1529777E+00
0.0000000E+00  0.0000000E+00  2.2184369E+01  9.1174832E+00
0.0000000E+00  0.0000000E+00  2.2307615E+01  9.0817954E+00
0.0000000E+00  0.0000000E+00  2.2430862E+01  9.0459025E+00
0.0000000E+00  0.0000000E+00  2.2554108E+01  9.0097928E+00
0.0000000E+00  0.0000000E+00  2.2677355E+01  8.9735729E+00
0.0000000E+00  0.0000000E+00  2.2800601E+01  8.9373422E+00
0.0000000E+00  0.0000000E+00  2.2923848E+01  8.9010997E+00
0.0000000E+00  0.0000000E+00  2.3047094E+01  8.8648445E+00
0.0000000E+00  0.0000000E+00  2.3170341E+01  8.8285758E+00
0.0000000E+00  0.0000000E+00  2.3293587E+01  8.7922924E+00
0.0000000E+00  0.0000000E+00  2.3416834E+01  8.7559935E+00
0.0000000E+00  0.0000000E+00  2.3540080E+01  8.7196781E+00
0.0000000E+00  0.0000000E+00  2.3663327E+01  8.6833452E+00
0.0000000E+00  0.0000000E+00  2.3786573E+01  8.6469940E+00
0.0000000E+00  0.0000000E+00  2.3909820E+01  8.6106234E+00
0.0000000E+00  0.0000000E+00  2.4033066E+01  8.5742325E+00
0.0000000E+00  0.0000000E+00  2.4156313E+01  8.5378204E+00
0.0000000E+00  0.0000000E+00  2.4279559E+01  8.5013860E+00
0.0000000E+00  0.0000000E+00  2.4402806E+01  8.4649285E+00
0.0000000E+00  0.0000000E+00  2.4526052E+01  8.4284469E+00
0.0000000E+00  0.0000000E+00  2.4649299E+01  8.3919402E+00
0.0000000E+00  0.0000000E+00  2.4772545E+01  8.3554075E+00
0.0000000E+00  0.0000000E+00  2.4895792E+01  8.3188479E+00
0.0000000E+00  0.0000000E+00  2.5019038E+01  8.2822603E+00
0.0000000E+00  0.0000000E+00  2.5142285E+01  8.2456438E+00
0.0000000E+00  0.0000000E+00  2.5265531E+01  8.2089976E+00
0.0000000E+00  0.0000000E+00  2.5388778E+01  8.1723205E+00
0.0000000E+00  0.0000000E+00  2.5512024E+01  8.1356117E+00
0.0000000E+00  0.0000000E+00  2.5635271E+01  8.0988703E+00
0.0000000E+00  0.0000000E+00  2.5758517E+01  8.0620952E+00
0.0000000E+00  0.0000000E+00  2.5881764E+01  8.0252855E+00
0.0000000E+00  0.0000000E+00  2.6005010E+01  7.9884403E+00
0.0000000E+00  0.0000000E+00  2.6128257E+01  7.9515586E+00
0.0000000E+00  0.0000000E+00  2.6251503E+01  7.9146395E+00
0.0000000E+00  0.0000000E+00  2.6374749E+01  7.8776820E+00
0.0000000E+00  0.0000000E+00  2.6497996E+01  7.8406851E+00
0.0000000E+00  0.0000000E+00  2.6621242E+01  7.8036479E+00
0.0000000E+00  0.0000000E+00  2.6744489E+01  7.7665355E+00
0.0000000E+00  0.0000000E+00  2.6867735E+01  7.7292750E+00
0.0000000E+00  0.0000000E+00  2.6990982E+01  7.6918745E+00
0.0000000E+00  0.0000000E+00  2.7114228E+01  7.6543457E+00
0.0000000E+00  0.0000000E+00  2.7237475E+01  7.6167001E+00
0.0000000E+00  0.0000000E+00  2.7360721E+01  7.5789493E+00
0.0000000E+00  0.0000000E+00  2.7483968E+01  7.5411047E+00
0.0000000E+00  0.0000000E+00  2.7607214E+01  7.5031779E+00
0.0000000E+00  0.0000000E+00  2.7730461E+01  7.4651804E+00
0.0000000E+00  0.0000000E+00  2.7853707E+01  7.4271238E+00
0.0000000E+00  0.0000000E+00  2.7976954E+01  7.3890196E+00
0.0000000E+00  0.0000000E+00  2.8100200E+01  7.3508794E+00
0.0000000E+00  0.0000000E+00  2.8223447E+01  7.3127146E+00
0.0000000E+00  0.0000000E+00  2.8346693E+01  7.2745369E+00
0.0000000E+00  0.0000000E+00  2.8469940E+01  7.2363577E+00
0.0000000E+00  0.0000000E+00  2.8593186E+01  7.1981886E+00
0.0000000E+00  0.0000000E+00  2.8716433E+01  7.1600411E+00
0.0000000E+00  0.0000000E+00  2.8839679E+01  7.1219267E+00
0.0000000E+00  0.0000000E+00  2.8962926E+01  7.0838571E+00
0.0000000E+00  0.0000000E+00  2.9086172E+01  7.0458437E+00
0.0000000E+00  0.0000000E+00  2.9209419E+01  7.0078981E+00
0.0000000E+00  0.0000000E+00  2.9332665E+01  6.9700317E+00
0.0000000E+00  0.0000000E+00  2.9455912E+01  6.9322562E+00
0.0000000E+00  0.0000000E+00  2.9579158E+01  6.8945831E+00
0.0000000E+00  0.0000000E+00  2.9702405E+01  6.8570239E+00
0.0000000E+00  0.0000000E+00  2.9825651E+01  6.8195901E+00
0.0000000E+00  0.0000000E+00  2.9948898E+01  6.7822934E+00
0.0000000E+00  0.0000000E+00  3.0072144E+01  6.7451451E+00
0.0000000E+00  0.0000000E+00  3.0195391E+01  6.7081569E+00
0.0000000E+00  0.0000000E+00  3.0318637E+01  6.6713403E+00
0.0000000E+00  0.0000000E+00  3.0441884E+01  6.6347068E+00
0.0000000E+00  0.0000000E+00  3.0565130E+01  6.5982680E+00
0.0000000E+00  0.0000000E+00  3.0688377E+01  6.5620354E+00
0.0000000E+00  0.0000000E+00  3.0811623E+01  6.5259982E+00
0.0000000E+00  0.0000000E+00  3.0934870E+01  6.4900296E+00
0.0000000E+00  0.0000000E+00  3.1058116E+01  6.4541059E+00
0.0000000E+00  0.0000000E+00  3.1181363E+01  6.4182253E+00
0.0000000E+00  0.0000000E+00  3.1304609E+01  6.3823860E+00
0.0000000E+00  0.0000000E+00  3.1427856E+01  6.3465862E+00
0.0000000E+00  0.0000000E+00  3.1551102E+01  6.3108239E+00
0.0000000E+00  0.0000000E+00  3.1674349E+01  6.2750973E+00
0.0000000E+00  0.0000000E+00  3.1797595E+01  6.2394047E+00
0.0000000E+00  0.0000000E+00  3.1920842E+01  6.2037442E+00
0.0000000E+00  0.0000000E+00  3.2044088E+01  6.1681139E+00
0.0000000E+00  0.0000000E+00  3.2167335E+01  6.1325120E+00
0.0000000E+00  0.0000000E+00  3.2290581E+01  6.0969366E+00
0.0000000E+00  0.0000000E+00  3.2413828E+01  6.0613860E+00
0.0000000E+00  0.0000000E+00  3.2537074E+01  6.0258582E+00
0.0000000E+00  0.0000000E+00  3.2660321E+01  5.9903515E+00
0.0000000E+00  0.0000000E+00  3.2783567E+01  5.9548639E+00
0.0000000E+00  0.0000000E+00  3.2906814E+01  5.9193937E+00
0.0000000E+00  0.0000000E+00  3.3030060E+01  5.8839390E+00
0.0000000E+00  0.0000000E+00  3.3153307E+01  5.8484980E+00
0.0000000E+00  0.0000000E+00  3.3276553E+01  5.8130688E+00
0.0000000E+00  0.0000000E+00  3.3399800E+01  5.7776496E+00
0.0000000E+00  0.0000000E+00  3.3523046E+01  5.7422386E+00
0.0000000E+00  0.0000000E+00  3.3646293E+01  5.7068339E+00
0.0000000E+00  0.0000000E+00  3.3769539E+01  5.6714336E+00
0.0000000E+00  0.0000000E+00  3.3892786E+01  5.6360360E+00
0.0000000E+00  0.0000000E+00  3.4016032E+01  5.6006391E+00
0.0000000E+00  0.0000000E+00  3.4139279E+01  5.5652412E+00
0.0000000E+00  0.0000000E+00  3.4262525E+01  5.5298405E+00
0.0000000E+00  0.0000000E+00  3.4385772E+01  5.4944350E+00
0.0000000E+00  0.0000000E+00  3.4509018E+01  5.4590229E+00
0.0000000E+00  0.0000000E+00  3.4632265E+01  5.4236024E+00
0.0000000E+00  0.0000000E+00  3.4755511E+01  5.3881717E+00
0.0000000E+00  0.0000000E+00  3.4878758E+01  5.3527296E+00
0.0000000E+00  0.0000000E+00  3.5002004E+01  5.3172941E+00
0.0000000E+00  0.0000000E+00  3.5125251E+01  5.2818731E+00
0.0000000E+00  0.0000000E+00  3.5248497E+01  5.2464663E+00
0.0000000E+00  0.0000000E+00  3.5371743E+01  5.2110732E+00
0.0000000E+00  0.0000000E+00  3.5494990E+01  5.1756937E+00
0.0000000E+00  0.0000000E+00  3.5618236E+01  5.1403272E+00
0.0000000E+00  0.0000000E+00  3.5741483E+01  5.1049736E+00
0.0000000E+00  0.0000000E+00  3.5864729E+01  5.0696324E+00
0.0000000E+00  0.0000000E+00  3.5987976E+01  5.0343033E+00
0.0000000E+00  0.0000000E+00  3.6111222E+01  4.9989861E+00
0.0000000E+00  0.0000000E+00  3.6234469E+01  4.9636803E+00
0.0000000E+00  0.0000000E+00  3.6357715E+01  4.9283856E+00
0.0000000E+00  0.0000000E+00  3.6480962E+01  4.8931017E+00
0.0000000E+00  0.0000000E+00  3.6604208E+01  4.8578282E+00
0.0000000E+00  0.0000000E+00  3.6727455E+01  4.8225649E+00
0.0000000E+00  0.0000000E+00  3.6850701E+01  4.7873113E+00
0.0000000E+00  0.0000000E+00  3.6973948E+01  4.7520672E+00
0.0000000E+00  0.0000000E+00  3.7097194E+01  4.7168322E+00
0.0000000E+00  0.0000000E+00  3.7220441E+01  4.6816059E+00
0.0000000E+00  0.0000000E+00  3.7343687E+01  4.6463881E+00
0.0000000E+00  0.0000000E+00  3.7466934E+01  4.6111784E+00
0.0000000E+00  0.0000000E+00  3.7590180E+01  4.5759764E+00
0.0000000E+00  0.0000000E+00  3.7713427E+01  4.5407819E+00
0.0000000E+00  0.0000000E+00  3.7836673E+01  4.5055945E+00
0.0000000E+00  0.0000000E+00  3.7959920E+01  4.4704138E+00
0.0000000E+00  0.0000000E+00  3.8083166E+01  4.4352395E+00
0.0000000E+00  0.0000000E+00  3.8206413E+01  4.4000713E+00
0.0000000E+00  0.0000000E+00  3.8329659E+01  4.3649089E+00
0.0000000E+00  0.0000000E+00  3.8452906E+01  4.3297519E+00
0.0000000E+00  0.0000000E+00  3.8576152E+01  4.2945999E+00
0.0000000E+00  0.0000000E+00  3.8699399E+01  4.2594527E+00
0.0000000E+00  0.0000000E+00  3.8822645E+01  4.2243099E+00
0.0000000E+00  0.0000000E+00  3.8945892E+01  4.1891712E+00
0.0000000E+00  0.0000000E+00  3.9069138E+01  4.1540223E+00
0.0000000E+00  0.0000000E+00  3.9192385E+01  4.1188603E+00
0.0000000E+00  0.0000000E+00  3.9315631E+01  4.0837053E+00
0.0000000E+00  0.0000000E+00  3.9438878E+01  4.0485776E+00
0.0000000E+00  0.0000000E+00  3.9562124E+01  4.0134974E+00
0.0000000E+00  0.0000000E+00  3.9685371E+01  3.9784848E+00
0.0000000E+00  0.0000000E+00  3.9808617E+01  3.9435601E+00
0.0000000E+00  0.0000000E+00  3.9931864E+01  3.9087435E+00
0.0000000E+00  0.0000000E+00  4.0055110E+01  3.8740552E+00
0.0000000E+00  0.0000000E+00  4.0178357E+01  3.8395153E+00
0.0000000E+00  0.0000000E+00  4.0301603E+01  3.8051441E+00
0.0000000E+00  0.0000000E+00  4.0424850E+01  3.7709618E+00
0.0000000E+00  0.0000000E+00  4.0548096E+01  3.7369885E+00
0.0000000E+00  0.0000000E+00  4.0671343E+01  3.7032446E+00
0.0000000E+00  0.0000000E+00  4.0794589E+01  3.6697501E+00
0.0000000E+00  0.0000000E+00  4.0917836E+01  3.6365254E+00
0.0000000E+00  0.0000000E+00  4.1041082E+01  3.6035905E+00
0.0000000E+00  0.0000000E+00  4.1164329E+01  3.5709657E+00
0.0000000E+00  0.0000000E+00  4.1287575E+01  3.5386712E+00
0.0000000E+00  0.0000000E+00  4.1410822E+01  3.5067272E+00
0.0000000E+00  0.0000000E+00  4.1534068E+01  3.4751539E+00
0.0000000E+00  0.0000000E+00  4.1657315E+01  3.4439715E+00
0.0000000E+00  0.0000000E+00  4.1780561E+01  3.4132001E+00
0.0000000E+00  0.0000000E+00  4.1903808E+01  3.3828601E+00
0.0000000E+00  0.0000000E+00  4.2027054E+01  3.3529717E+00
0.0000000E+00  0.0000000E+00  4.2150301E+01  3.3235549E+00
0.0000000E+00  0.0000000E+00  4.2273547E+01  3.2946300E+00
0.0000000E+00  0.0000000E+00  4.2396794E+01  3.2662172E+00
0.0000000E+00  0.0000000E+00  4.2520040E+01  3.2383368E+00
0.0000000E+00  0.0000000E+00  4.2643287E+01  3.2110088E+00
0.0000000E+00  0.0000000E+00  4.2766533E+01  3.1842536E+00
0.0000000E+00  0.0000000E+00  4.2889780E+01  3.1580913E+00
0.0000000E+00  0.0000000E+00  4.3013026E+01  3.1325422E+00
0.0000000E+00  0.0000000E+00  4.3136273E+01  3.1074867E+00
0.0000000E+00  0.0000000E+00  4.3259519E+01  3.0825299E+00
0.0000000E+00  0.0000000E+00  4.3382766E+01  3.0576440E+00
0.0000000E+00  0.0000000E+00  4.3506012E+01  3.0328268E+00
0.0000000E+00  0.0000000E+00  4.3629259E+01  3.0080758E+00
0.0000000E+00  0.0000000E+00  4.3752505E+01  2.9833888E+00
0.0000000E+00  0.0000000E+00  4.3875752E+01  2.9587635E+00
0.0000000E+00  0.0000000E+00  4.3998998E+01  2.9341975E+00
0.0000000E+00  0.0000000E+00  4.4122244E+01  2.9096884E+00
0.0000000E+00  0.0000000E+00  4.4245491E+01  2.8852340E+00
0.0000000E+00  0.0000000E+00  4.4368737E+01  2.8608320E+00
0.0000000E+00  0.0000000E+00  4.4491984E+01  2.8364799E+00
0.0000000E+00  0.0000000E+00  4.4615230E+01  2.8121755E+00
0.0000000E+00  0.0000000E+00  4.4738477E+01  2.7879164E+00
0.0000000E+00  0.0000000E+00  4.4861723E+01  2.7637003E+00
0.0000000E+00  0.0000000E+00  4.4984970E+01  2.7395250E+00
0.0000000E+00  0.0000000E+00  4.5108216E+01  2.7153879E+00
0.0000000E+00  0.0000000E+00  4.5231463E+01  2.6912869E+00
0.0000000E+00  0.0000000E+00  4.5354709E+01  2.6672196E+00
0.0000000E+00  0.0000000E+00  4.5477956E+01  2.6431836E+00
0.0000000E+00  0.0000000E+00  4.5601202E+01  2.6191766E+00
0.0000000E+00  0.0000000E+00  4.5724449E+01  2.5951964E+00
0.0000000E+00  0.0000000E+00  4.5847695E+01  2.5712405E+00
0.0000000E+00  0.0000000E+00  4.5970942E+01  2.5473067E+00
0.0000000E+00  0.0000000E+00  4.6094188E+01  2.5233926E+00
0.0000000E+00  0.0000000E+00  4.6217435E+01  2.4994959E+00
0.0000000E+00  0.0000000E+00  4.6340681E+01  2.4756142E+00
0.0000000E+00  0.0000000E+00  4.6463928E+01  2.4517453E+00
0.0000000E+00  0.0000000E+00  4.6587174E+01  2.4278867E+00
0.0000000E+00  0.0000000E+00  4.6710421E+01  2.4040362E+00
0.0000000E+00  0.0000000E+00  4.6833667E+01  2.3801915E+00
0.0000000E+00  0.0000000E+00  4.6956914E+01  2.3563501E+00
0.0000000E+00  0.0000000E+00  4.7080160E+01  2.3325099E+00
0.0000000E+00  0.0000000E+00  4.7203407E+01  2.3086688E+00
0.0000000E+00  0.0000000E+00  4.7326653E+01  2.2848284E+00
0.0000000E+00  0.0000000E+00  4.7449900E+01  2.2609893E+00
0.0000000E+00  0.0000000E+00  4.7573146E+01  2.2371512E+00
0.0000000E+00  0.0000000E+00  4.7696393E+01  2.2133142E+00
0.0000000E+00  0.0000000E+00  4.7819639E+01  2.1894780E+00
0.0000000E+00  0.0000000E+00  4.7942886E+01  2.1656427E+00
0.0000000E+00  0.0000000E+00  4.8066132E+01  2.1418080E+00
0.0000000E+00  0.0000000E+00  4.8189379E+01  2.1179740E+00
0.0000000E+00  0.0000000E+00  4.8312625E+01  2.0941405E+00
0.0000000E+00  0.0000000E+00  4.8435872E+01  2.0703073E+00
0.0000000E+00  0.0000000E+00  4.8559118E+01  2.0464745E+00
0.0000000E+00  0.0000000E+00  4.8682365E+01  2.0226419E+00
0.0000000E+00  0.0000000E+00  4.8805611E+01  1.9988094E+00
0.0000000E+00  0.0000000E+00  4.8928858E+01  1.9749768E+00
0.0000000E+00  0.0000000E+00  4.9052104E+01  1.9511442E+00
0.0000000E+00  0.0000000E+00  4.9175351E+01  1.9273113E+00
0.0000000E+00  0.0000000E+00  4.9298597E+01  1.9034782E+00
0.0000000E+00  0.0000000E+00  4.9421844E+01  1.8796447E+00
0.0000000E+00  0.0000000E+00  4.9545090E+01  1.8558106E+00
0.0000000E+00  0.0000000E+00  4.9668337E+01  1.8319760E+00
0.0000000E+00  0.0000000E+00  4.9791583E+01  1.8081406E+00
0.0000000E+00  0.0000000E+00  4.9914830E+01  1.7843044E+00
0.0000000E+00  0.0000000E+00  5.0038076E+01  1.7604674E+00
0.0000000E+00  0.0000000E+00  5.0161323E+01  1.7366293E+00
0.0000000E+00  0.0000000E+00  5.0284569E+01  1.7127901E+00
0.0000000E+00  0.0000000E+00  5.0407816E+01  1.6889497E+00
0.0000000E+00  0.0000000E+00  5.0531062E+01  1.6651080E+00
0.0000000E+00  0.0000000E+00  5.0654309E+01  1.6412649E+00
0.0000000E+00  0.0000000E+00  5.0777555E+01  1.6174202E+00
0.0000000E+00  0.0000000E+00  5.0900802E+01  1.5935740E+00
0.0000000E+00  0.0000000E+00  5.1024048E+01  1.5697260E+00
0.0000000E+00  0.0000000E+00  5.1147295E+01  1.5458763E+00
0.0000000E+00  0.0000000E+00  5.1270541E+01  1.5220245E+00
0.0000000E+00  0.0000000E+00  5.1393788E+01  1.4981656E+00
0.0000000E+00  0.0000000E+00  5.1517034E+01  1.4742974E+00
0.0000000E+00  0.0000000E+00  5.1640281E+01  1.4504204E+00
0.0000000E+00  0.0000000E+00  5.1763527E+01  1.4265353E+00
0.0000000E+00  0.0000000E+00  5.1886774E+01  1.4026425E+00
0.0000000E+00  0.0000000E+00  5.2010020E+01  1.3787429E+00
0.0000000E+00  0.0000000E+00  5.2133267E+01  1.3548368E+00
0.0000000E+00  0.0000000E+00  5.2256513E+01  1.3309249E+00
0.0000000E+00  0.0000000E+00  5.2379760E+01  1.3070079E+00
0.0000000E+00  0.0000000E+00  5.2503006E+01  1.2830862E+00
0.0000000E+00  0.0000000E+00  5.2626253E+01  1.2591605E+00
0.0000000E+00  0.0000000E+00  5.2749499E+01  1.2352314E+00
0.0000000E+00  0.0000000E+00  5.2872745E+01  1.2112994E+00
0.0000000E+00  0.0000000E+00  5.2995992E+01  1.1873653E+00
0.0000000E+00  0.0000000E+00  5.3119238E+01  1.1634294E+00
0.0000000E+00  0.0000000E+00  5.3242485E+01  1.1394926E+00
0.0000000E+00  0.0000000E+00  5.3365731E+01  1.1155552E+00
0.0000000E+00  0.0000000E+00  5.3488978E+01  1.0916180E+00
0.0000000E+00  0.0000000E+00  5.3612224E+01  1.0676815E+00
0.0000000E+00  0.0000000E+00  5.3735471E+01  1.0437464E+00
0.0000000E+00  0.0000000E+00  5.3858717E+01  1.0198131E+00
0.0000000E+00  0.0000000E+00  5.3981964E+01  9.9588237E-01
0.0000000E+00  0.0000000E+00  5.4105210E+01  9.7195471E-01
0.0000000E+00  0.0000000E+00  5.4228457E+01  9.4803074E-01
0.0000000E+00  0.0000000E+00  5.4351703E+01  9.2411104E-01
0.0000000E+00  0.0000000E+00  5.4474950E+01  9.0019622E-01
0.0000000E+00  0.0000000E+00  5.4598196E+01  8.7628686E-01
0.0000000E+00  0.0000000E+00  5.4721443E+01  8.5240123E-01
0.0000000E+00  0.0000000E+00  5.4844689E+01  8.2867180E-01
0.0000000E+00  0.0000000E+00  5.4967936E+01  8.0512173E-01
0.0000000E+00  0.0000000E+00  5.5091182E+01  7.8174624E-01
0.0000000E+00  0.0000000E+00  5.5214429E+01  7.5854053E-01
0.0000000E+00  0.0000000E+00  5.5337675E+01  7.3549984E-01
0.0000000E+00  0.0000000E+00  5.5460922E+01  7.1261936E-01
0.0000000E+00  0.0000000E+00  5.5584168E+01  6.8989431E-01
0.0000000E+00  0.0000000E+00  5.5707415E+01  6.6731992E-01
0.0000000E+00  0.0000000E+00  5.5830661E+01  6.4489138E-01
0.0000000E+00  0.0000000E+00  5.5953908E+01  6.2260392E-01
0.0000000E+00  0.0000000E+00  5.6077154E+01  6.0045276E-01
0.0000000E+00  0.0000000E+00  5.6200401E+01  5.7843310E-01
0.0000000E+00  0.0000000E+00  5.6323647E+01  5.5654016E-01
0.0000000E+00  0.0000000E+00  5.6446894E+01  5.3476915E-01
0.0000000E+00  0.0000000E+00  5.6570140E+01  5.1311530E-01
0.0000000E+00  0.0000000E+00  5.6693387E+01  4.9157380E-01
0.0000000E+00  0.0000000E+00  5.6816633E+01  4.7013989E-01
0.0000000E+00  0.0000000E+00  5.6939880E+01  4.4880877E-01
0.0000000E+00  0.0000000E+00  5.7063126E+01  4.2757565E-01
0.0000000E+00  0.0000000E+00  5.7186373E+01  4.0643576E-01
0.0000000E+00  0.0000000E+00  5.7309619E+01  3.8538430E-01
0.0000000E+00  0.0000000E+00  5.7432866E+01  3.6445380E-01
0.0000000E+00  0.0000000E+00  5.7556112E+01  3.4435903E-01
0.0000000E+00  0.0000000E+00  5.7679359E+01  3.2534265E-01
0.0000000E+00  0.0000000E+00  5.7802605E+01  3.0736175E-01
0.0000000E+00  0.0000000E+00  5.7925852E+01  2.9037347E-01