--------- BEAMDYN with OpenFAST INPUT FILE -------------------------------------------
NREL 5MW blade
---------------------- SIMULATION CONTROL -------------------------------------------
False         Echo             - Echo  input data to "<RootName>.ech"? (flag)
true          QuasiStaticInit  - Use quasistatic pre-conditioning with centripetal  accelerations in initialization? (flag) [dynamic solve only]
        1.0   rhoinf           - Numerical damping parameter for generalized-alpha integrator
          2   quadrature       - Quadrature method: 1=Gaussian; 2=Trapezoidal (switch)
"DEFAULT"     refine           - Refinement factor for trapezoidal quadrature (-) [DEFAULT = 1; used only when   quadrature=2]
"DEFAULT"     n_fact           -   Factorization frequency for the Jacobian in N-R iteration(-) [DEFAULT = 5]
DEFAULT       DTBeam           - Time step size (s)
"DEFAULT"     load_retries  -   Number of factored load retries before quitting the aimulation [DEFAULT = 20]
10000         NRMax            - Max  number of iterations in Newton-Raphson algorithm (-) [DEFAULT = 10]
1.0e-8        stop_tol         -   Tolerance for stopping criterion (-) [DEFAULT = 1E-5]
"DEFAULT"     tngt_stf_fd      -    Use finite differenced tangent stiffness matrix? (flag)
"DEFAULT"     tngt_stf_comp       - Compare analytical finite differenced tangent stiffness matrix? (flag)
"DEFAULT"     tngt_stf_pert       - Perturbation size for finite differencing (-) [DEFAULT = 1E-6]
"DEFAULT"     tngt_stf_difftol - Maximum allowable relative difference between analytical and  fd tangent stiffness (-); [DEFAULT = 0.1]
True          RotStates        -  Orient states in the rotating frame during linearization? (flag) [used only when     linearizing]
---------------------- GEOMETRY PARAMETER ------------------------------------------
          1   member_total    - Total number of members (-)
        300   kp_total        - Total number of key points (-) [must be at least 3]
     1     300                 - Member    number; Number of key points in this member 
   kp_xr         kp_yr         kp_zr        initial_twist
   (m)            (m)          (m)            (deg)
0.0000000E+00  0.0000000E+00  0.0000000E+00  1.3308000E+01
0.0000000E+00  0.0000000E+00  2.0568562E-01  1.3308000E+01
0.0000000E+00  0.0000000E+00  4.1137124E-01  1.3308000E+01
0.0000000E+00  0.0000000E+00  6.1705686E-01  1.3308000E+01
0.0000000E+00  0.0000000E+00  8.2274247E-01  1.3308000E+01
0.0000000E+00  0.0000000E+00  1.0284281E+00  1.3308000E+01
0.0000000E+00  0.0000000E+00  1.2341137E+00  1.3308000E+01
0.0000000E+00  0.0000000E+00  1.4397993E+00  1.3308000E+01
0.0000000E+00  0.0000000E+00  1.6454849E+00  1.3308000E+01
0.0000000E+00  0.0000000E+00  1.8511706E+00  1.3308000E+01
0.0000000E+00  0.0000000E+00  2.0568562E+00  1.3308000E+01
0.0000000E+00  0.0000000E+00  2.2625418E+00  1.3308000E+01
0.0000000E+00  0.0000000E+00  2.4682274E+00  1.3308000E+01
0.0000000E+00  0.0000000E+00  2.6739130E+00  1.3308000E+01
0.0000000E+00  0.0000000E+00  2.8795987E+00  1.3308000E+01
0.0000000E+00  0.0000000E+00  3.0852843E+00  1.3308000E+01
0.0000000E+00  0.0000000E+00  3.2909699E+00  1.3308000E+01
0.0000000E+00  0.0000000E+00  3.4966555E+00  1.3308000E+01
0.0000000E+00  0.0000000E+00  3.7023411E+00  1.3308000E+01
0.0000000E+00  0.0000000E+00  3.9080268E+00  1.3308000E+01
0.0000000E+00  0.0000000E+00  4.1137124E+00  1.3308000E+01
0.0000000E+00  0.0000000E+00  4.3193980E+00  1.3308000E+01
0.0000000E+00  0.0000000E+00  4.5250836E+00  1.3308000E+01
0.0000000E+00  0.0000000E+00  4.7307692E+00  1.3308000E+01
0.0000000E+00  0.0000000E+00  4.9364548E+00  1.3308000E+01
0.0000000E+00  0.0000000E+00  5.1421405E+00  1.3308000E+01
0.0000000E+00  0.0000000E+00  5.3478261E+00  1.3308000E+01
0.0000000E+00  0.0000000E+00  5.5535117E+00  1.3308000E+01
0.0000000E+00  0.0000000E+00  5.7591973E+00  1.3308000E+01
0.0000000E+00  0.0000000E+00  5.9648829E+00  1.3308000E+01
0.0000000E+00  0.0000000E+00  6.1705686E+00  1.3308000E+01
0.0000000E+00  0.0000000E+00  6.3762542E+00  1.3308000E+01
0.0000000E+00  0.0000000E+00  6.5819398E+00  1.3308000E+01
0.0000000E+00  0.0000000E+00  6.7876254E+00  1.3308000E+01
0.0000000E+00  0.0000000E+00  6.9933110E+00  1.3308000E+01
0.0000000E+00  0.0000000E+00  7.1989967E+00  1.3308000E+01
0.0000000E+00  0.0000000E+00  7.4046823E+00  1.3308000E+01
0.0000000E+00  0.0000000E+00  7.6103679E+00  1.3308000E+01
0.0000000E+00  0.0000000E+00  7.8160535E+00  1.3308000E+01
0.0000000E+00  0.0000000E+00  8.0217391E+00  1.3308000E+01
0.0000000E+00  0.0000000E+00  8.2274247E+00  1.3308000E+01
0.0000000E+00  0.0000000E+00  8.4331104E+00  1.3308000E+01
0.0000000E+00  0.0000000E+00  8.6387960E+00  1.3308000E+01
0.0000000E+00  0.0000000E+00  8.8444816E+00  1.3308000E+01
0.0000000E+00  0.0000000E+00  9.0501672E+00  1.3308000E+01
0.0000000E+00  0.0000000E+00  9.2558528E+00  1.3308000E+01
0.0000000E+00  0.0000000E+00  9.4615385E+00  1.3308000E+01
0.0000000E+00  0.0000000E+00  9.6672241E+00  1.3308000E+01
0.0000000E+00  0.0000000E+00  9.8729097E+00  1.3308000E+01
0.0000000E+00  0.0000000E+00  1.0078595E+01  1.3308000E+01
0.0000000E+00  0.0000000E+00  1.0284281E+01  1.3307713E+01
0.0000000E+00  0.0000000E+00  1.0489967E+01  1.3294335E+01
0.0000000E+00  0.0000000E+00  1.0695652E+01  1.3262232E+01
0.0000000E+00  0.0000000E+00  1.0901338E+01  1.3213141E+01
0.0000000E+00  0.0000000E+00  1.1107023E+01  1.3148802E+01
0.0000000E+00  0.0000000E+00  1.1312709E+01  1.3070953E+01
0.0000000E+00  0.0000000E+00  1.1518395E+01  1.2981333E+01
0.0000000E+00  0.0000000E+00  1.1724080E+01  1.2881681E+01
0.0000000E+00  0.0000000E+00  1.1929766E+01  1.2773736E+01
0.0000000E+00  0.0000000E+00  1.2135452E+01  1.2659237E+01
0.0000000E+00  0.0000000E+00  1.2341137E+01  1.2539922E+01
0.0000000E+00  0.0000000E+00  1.2546823E+01  1.2417530E+01
0.0000000E+00  0.0000000E+00  1.2752508E+01  1.2293800E+01
0.0000000E+00  0.0000000E+00  1.2958194E+01  1.2170472E+01
0.0000000E+00  0.0000000E+00  1.3163880E+01  1.2049282E+01
0.0000000E+00  0.0000000E+00  1.3369565E+01  1.1931972E+01
0.0000000E+00  0.0000000E+00  1.3575251E+01  1.1820278E+01
0.0000000E+00  0.0000000E+00  1.3780936E+01  1.1715941E+01
0.0000000E+00  0.0000000E+00  1.3986622E+01  1.1620699E+01
0.0000000E+00  0.0000000E+00  1.4192308E+01  1.1536290E+01
0.0000000E+00  0.0000000E+00  1.4397993E+01  1.1464064E+01
0.0000000E+00  0.0000000E+00  1.4603679E+01  1.1395595E+01
0.0000000E+00  0.0000000E+00  1.4809365E+01  1.1326909E+01
0.0000000E+00  0.0000000E+00  1.5015050E+01  1.1258085E+01
0.0000000E+00  0.0000000E+00  1.5220736E+01  1.1189204E+01
0.0000000E+00  0.0000000E+00  1.5426421E+01  1.1120345E+01
0.0000000E+00  0.0000000E+00  1.5632107E+01  1.1051588E+01
0.0000000E+00  0.0000000E+00  1.5837793E+01  1.0983014E+01
0.0000000E+00  0.0000000E+00  1.6043478E+01  1.0914701E+01
0.0000000E+00  0.0000000E+00  1.6249164E+01  1.0846730E+01
0.0000000E+00  0.0000000E+00  1.6454849E+01  1.0779181E+01
0.0000000E+00  0.0000000E+00  1.6660535E+01  1.0712133E+01
0.0000000E+00  0.0000000E+00  1.6866221E+01  1.0645667E+01
0.0000000E+00  0.0000000E+00  1.7071906E+01  1.0579862E+01
0.0000000E+00  0.0000000E+00  1.7277592E+01  1.0514798E+01
0.0000000E+00  0.0000000E+00  1.7483278E+01  1.0450555E+01
0.0000000E+00  0.0000000E+00  1.7688963E+01  1.0387213E+01
0.0000000E+00  0.0000000E+00  1.7894649E+01  1.0324852E+01
0.0000000E+00  0.0000000E+00  1.8100334E+01  1.0263551E+01
0.0000000E+00  0.0000000E+00  1.8306020E+01  1.0203391E+01
0.0000000E+00  0.0000000E+00  1.8511706E+01  1.0144414E+01
0.0000000E+00  0.0000000E+00  1.8717391E+01  1.0086073E+01
0.0000000E+00  0.0000000E+00  1.8923077E+01  1.0028121E+01
0.0000000E+00  0.0000000E+00  1.9128763E+01  9.9705026E+00
0.0000000E+00  0.0000000E+00  1.9334448E+01  9.9131637E+00
0.0000000E+00  0.0000000E+00  1.9540134E+01  9.8560487E+00
0.0000000E+00  0.0000000E+00  1.9745819E+01  9.7991027E+00
0.0000000E+00  0.0000000E+00  1.9951505E+01  9.7422707E+00
0.0000000E+00  0.0000000E+00  2.0157191E+01  9.6854976E+00
0.0000000E+00  0.0000000E+00  2.0362876E+01  9.6287285E+00
0.0000000E+00  0.0000000E+00  2.0568562E+01  9.5719083E+00
0.0000000E+00  0.0000000E+00  2.0774247E+01  9.5149820E+00
0.0000000E+00  0.0000000E+00  2.0979933E+01  9.4578947E+00
0.0000000E+00  0.0000000E+00  2.1185619E+01  9.4005913E+00
0.0000000E+00  0.0000000E+00  2.1391304E+01  9.3430168E+00
0.0000000E+00  0.0000000E+00  2.1596990E+01  9.2851162E+00
0.0000000E+00  0.0000000E+00  2.1802676E+01  9.2268344E+00
0.0000000E+00  0.0000000E+00  2.2008361E+01  9.1681166E+00
0.0000000E+00  0.0000000E+00  2.2214047E+01  9.1089076E+00
0.0000000E+00  0.0000000E+00  2.2419732E+01  9.0491524E+00
0.0000000E+00  0.0000000E+00  2.2625418E+01  8.9888374E+00
0.0000000E+00  0.0000000E+00  2.2831104E+01  8.9283736E+00
0.0000000E+00  0.0000000E+00  2.3036789E+01  8.8678764E+00
0.0000000E+00  0.0000000E+00  2.3242475E+01  8.8073415E+00
0.0000000E+00  0.0000000E+00  2.3448161E+01  8.7467644E+00
0.0000000E+00  0.0000000E+00  2.3653846E+01  8.6861407E+00
0.0000000E+00  0.0000000E+00  2.3859532E+01  8.6254660E+00
0.0000000E+00  0.0000000E+00  2.4065217E+01  8.5647358E+00
0.0000000E+00  0.0000000E+00  2.4270903E+01  8.5039457E+00
0.0000000E+00  0.0000000E+00  2.4476589E+01  8.4430913E+00
0.0000000E+00  0.0000000E+00  2.4682274E+01  8.3821682E+00
0.0000000E+00  0.0000000E+00  2.4887960E+01  8.3211719E+00
0.0000000E+00  0.0000000E+00  2.5093645E+01  8.2600980E+00
0.0000000E+00  0.0000000E+00  2.5299331E+01  8.1989421E+00
0.0000000E+00  0.0000000E+00  2.5505017E+01  8.1376997E+00
0.0000000E+00  0.0000000E+00  2.5710702E+01  8.0763665E+00
0.0000000E+00  0.0000000E+00  2.5916388E+01  8.0149380E+00
0.0000000E+00  0.0000000E+00  2.6122074E+01  7.9534098E+00
0.0000000E+00  0.0000000E+00  2.6327759E+01  7.8917774E+00
0.0000000E+00  0.0000000E+00  2.6533445E+01  7.8300364E+00
0.0000000E+00  0.0000000E+00  2.6739130E+01  7.7681522E+00
0.0000000E+00  0.0000000E+00  2.6944816E+01  7.7058997E+00
0.0000000E+00  0.0000000E+00  2.7150502E+01  7.6432777E+00
0.0000000E+00  0.0000000E+00  2.7356187E+01  7.5803398E+00
0.0000000E+00  0.0000000E+00  2.7561873E+01  7.5171397E+00
0.0000000E+00  0.0000000E+00  2.7767559E+01  7.4537309E+00
0.0000000E+00  0.0000000E+00  2.7973244E+01  7.3901672E+00
0.0000000E+00  0.0000000E+00  2.8178930E+01  7.3265020E+00
0.0000000E+00  0.0000000E+00  2.8384615E+01  7.2627890E+00
0.0000000E+00  0.0000000E+00  2.8590301E+01  7.1990819E+00
0.0000000E+00  0.0000000E+00  2.8795987E+01  7.1354343E+00
0.0000000E+00  0.0000000E+00  2.9001672E+01  7.0718998E+00
0.0000000E+00  0.0000000E+00  2.9207358E+01  7.0085320E+00
0.0000000E+00  0.0000000E+00  2.9413043E+01  6.9453845E+00
0.0000000E+00  0.0000000E+00  2.9618729E+01  6.8825110E+00
0.0000000E+00  0.0000000E+00  2.9824415E+01  6.8199651E+00
0.0000000E+00  0.0000000E+00  3.0030100E+01  6.7578004E+00
0.0000000E+00  0.0000000E+00  3.0235786E+01  6.6960705E+00
0.0000000E+00  0.0000000E+00  3.0441472E+01  6.6348290E+00
0.0000000E+00  0.0000000E+00  3.0647157E+01  6.5741297E+00
0.0000000E+00  0.0000000E+00  3.0852843E+01  6.5139635E+00
0.0000000E+00  0.0000000E+00  3.1058528E+01  6.4539858E+00
0.0000000E+00  0.0000000E+00  3.1264214E+01  6.3941282E+00
0.0000000E+00  0.0000000E+00  3.1469900E+01  6.3343822E+00
0.0000000E+00  0.0000000E+00  3.1675585E+01  6.2747391E+00
0.0000000E+00  0.0000000E+00  3.1881271E+01  6.2151904E+00
0.0000000E+00  0.0000000E+00  3.2086957E+01  6.1557275E+00
0.0000000E+00  0.0000000E+00  3.2292642E+01  6.0963419E+00
0.0000000E+00  0.0000000E+00  3.2498328E+01  6.0370251E+00
0.0000000E+00  0.0000000E+00  3.2704013E+01  5.9777685E+00
0.0000000E+00  0.0000000E+00  3.2909699E+01  5.9185635E+00
0.0000000E+00  0.0000000E+00  3.3115385E+01  5.8594016E+00
0.0000000E+00  0.0000000E+00  3.3321070E+01  5.8002742E+00
0.0000000E+00  0.0000000E+00  3.3526756E+01  5.7411728E+00
0.0000000E+00  0.0000000E+00  3.3732441E+01  5.6820888E+00
0.0000000E+00  0.0000000E+00  3.3938127E+01  5.6230137E+00
0.0000000E+00  0.0000000E+00  3.4143813E+01  5.5639389E+00
0.0000000E+00  0.0000000E+00  3.4349498E+01  5.5048559E+00
0.0000000E+00  0.0000000E+00  3.4555184E+01  5.4457561E+00
0.0000000E+00  0.0000000E+00  3.4760870E+01  5.3866309E+00
0.0000000E+00  0.0000000E+00  3.4966555E+01  5.3274848E+00
0.0000000E+00  0.0000000E+00  3.5172241E+01  5.2683719E+00
0.0000000E+00  0.0000000E+00  3.5377926E+01  5.2092980E+00
0.0000000E+00  0.0000000E+00  3.5583612E+01  5.1502616E+00
0.0000000E+00  0.0000000E+00  3.5789298E+01  5.0912612E+00
0.0000000E+00  0.0000000E+00  3.5994983E+01  5.0322950E+00
0.0000000E+00  0.0000000E+00  3.6200669E+01  4.9733617E+00
0.0000000E+00  0.0000000E+00  3.6406355E+01  4.9144596E+00
0.0000000E+00  0.0000000E+00  3.6612040E+01  4.8555871E+00
0.0000000E+00  0.0000000E+00  3.6817726E+01  4.7967428E+00
0.0000000E+00  0.0000000E+00  3.7023411E+01  4.7379250E+00
0.0000000E+00  0.0000000E+00  3.7229097E+01  4.6791322E+00
0.0000000E+00  0.0000000E+00  3.7434783E+01  4.6203628E+00
0.0000000E+00  0.0000000E+00  3.7640468E+01  4.5616152E+00
0.0000000E+00  0.0000000E+00  3.7846154E+01  4.5028880E+00
0.0000000E+00  0.0000000E+00  3.8051839E+01  4.4441795E+00
0.0000000E+00  0.0000000E+00  3.8257525E+01  4.3854882E+00
0.0000000E+00  0.0000000E+00  3.8463211E+01  4.3268126E+00
0.0000000E+00  0.0000000E+00  3.8668896E+01  4.2681510E+00
0.0000000E+00  0.0000000E+00  3.8874582E+01  4.2095018E+00
0.0000000E+00  0.0000000E+00  3.9080268E+01  4.1508474E+00
0.0000000E+00  0.0000000E+00  3.9285953E+01  4.0921690E+00
0.0000000E+00  0.0000000E+00  3.9491639E+01  4.0335530E+00
0.0000000E+00  0.0000000E+00  3.9697324E+01  3.9750933E+00
0.0000000E+00  0.0000000E+00  3.9903010E+01  3.9168838E+00
0.0000000E+00  0.0000000E+00  4.0108696E+01  3.8590184E+00
0.0000000E+00  0.0000000E+00  4.0314381E+01  3.8015910E+00
0.0000000E+00  0.0000000E+00  4.0520067E+01  3.7446955E+00
0.0000000E+00  0.0000000E+00  4.0725753E+01  3.6884258E+00
0.0000000E+00  0.0000000E+00  4.0931438E+01  3.6328758E+00
0.0000000E+00  0.0000000E+00  4.1137124E+01  3.5781394E+00
0.0000000E+00  0.0000000E+00  4.1342809E+01  3.5243106E+00
0.0000000E+00  0.0000000E+00  4.1548495E+01  3.4714832E+00
0.0000000E+00  0.0000000E+00  4.1754181E+01  3.4197511E+00
0.0000000E+00  0.0000000E+00  4.1959866E+01  3.3692082E+00
0.0000000E+00  0.0000000E+00  4.2165552E+01  3.3199485E+00
0.0000000E+00  0.0000000E+00  4.2371237E+01  3.2720658E+00
0.0000000E+00  0.0000000E+00  4.2576923E+01  3.2256540E+00
0.0000000E+00  0.0000000E+00  4.2782609E+01  3.1808071E+00
0.0000000E+00  0.0000000E+00  4.2988294E+01  3.1376190E+00
0.0000000E+00  0.0000000E+00  4.3193980E+01  3.0957923E+00
0.0000000E+00  0.0000000E+00  4.3399666E+01  3.0542370E+00
0.0000000E+00  0.0000000E+00  4.3605351E+01  3.0128719E+00
0.0000000E+00  0.0000000E+00  4.3811037E+01  2.9716863E+00
0.0000000E+00  0.0000000E+00  4.4016722E+01  2.9306693E+00
0.0000000E+00  0.0000000E+00  4.4222408E+01  2.8898101E+00
0.0000000E+00  0.0000000E+00  4.4428094E+01  2.8490978E+00
0.0000000E+00  0.0000000E+00  4.4633779E+01  2.8085216E+00
0.0000000E+00  0.0000000E+00  4.4839465E+01  2.7680707E+00
0.0000000E+00  0.0000000E+00  4.5045151E+01  2.7277343E+00
0.0000000E+00  0.0000000E+00  4.5250836E+01  2.6875016E+00
0.0000000E+00  0.0000000E+00  4.5456522E+01  2.6473616E+00
0.0000000E+00  0.0000000E+00  4.5662207E+01  2.6073036E+00
0.0000000E+00  0.0000000E+00  4.5867893E+01  2.5673168E+00
0.0000000E+00  0.0000000E+00  4.6073579E+01  2.5273903E+00
0.0000000E+00  0.0000000E+00  4.6279264E+01  2.4875134E+00
0.0000000E+00  0.0000000E+00  4.6484950E+01  2.4476751E+00
0.0000000E+00  0.0000000E+00  4.6690635E+01  2.4078646E+00
0.0000000E+00  0.0000000E+00  4.6896321E+01  2.3680712E+00
0.0000000E+00  0.0000000E+00  4.7102007E+01  2.3282840E+00
0.0000000E+00  0.0000000E+00  4.7307692E+01  2.2884961E+00
0.0000000E+00  0.0000000E+00  4.7513378E+01  2.2487113E+00
0.0000000E+00  0.0000000E+00  4.7719064E+01  2.2089295E+00
0.0000000E+00  0.0000000E+00  4.7924749E+01  2.1691502E+00
0.0000000E+00  0.0000000E+00  4.8130435E+01  2.1293728E+00
0.0000000E+00  0.0000000E+00  4.8336120E+01  2.0895970E+00
0.0000000E+00  0.0000000E+00  4.8541806E+01  2.0498223E+00
0.0000000E+00  0.0000000E+00  4.8747492E+01  2.0100481E+00
0.0000000E+00  0.0000000E+00  4.8953177E+01  1.9702741E+00
0.0000000E+00  0.0000000E+00  4.9158863E+01  1.9304997E+00
0.0000000E+00  0.0000000E+00  4.9364548E+01  1.8907245E+00
0.0000000E+00  0.0000000E+00  4.9570234E+01  1.8509481E+00
0.0000000E+00  0.0000000E+00  4.9775920E+01  1.8111699E+00
0.0000000E+00  0.0000000E+00  4.9981605E+01  1.7713895E+00
0.0000000E+00  0.0000000E+00  5.0187291E+01  1.7316064E+00
0.0000000E+00  0.0000000E+00  5.0392977E+01  1.6918202E+00
0.0000000E+00  0.0000000E+00  5.0598662E+01  1.6520303E+00
0.0000000E+00  0.0000000E+00  5.0804348E+01  1.6122364E+00
0.0000000E+00  0.0000000E+00  5.1010033E+01  1.5724379E+00
0.0000000E+00  0.0000000E+00  5.1215719E+01  1.5326344E+00
0.0000000E+00  0.0000000E+00  5.1421405E+01  1.4928180E+00
0.0000000E+00  0.0000000E+00  5.1627090E+01  1.4529762E+00
0.0000000E+00  0.0000000E+00  5.1832776E+01  1.4131115E+00
0.0000000E+00  0.0000000E+00  5.2038462E+01  1.3732266E+00
0.0000000E+00  0.0000000E+00  5.2244147E+01  1.3333244E+00
0.0000000E+00  0.0000000E+00  5.2449833E+01  1.2934074E+00
0.0000000E+00  0.0000000E+00  5.2655518E+01  1.2534786E+00
0.0000000E+00  0.0000000E+00  5.2861204E+01  1.2135407E+00
0.0000000E+00  0.0000000E+00  5.3066890E+01  1.1735963E+00
0.0000000E+00  0.0000000E+00  5.3272575E+01  1.1336484E+00
0.0000000E+00  0.0000000E+00  5.3478261E+01  1.0936995E+00
0.0000000E+00  0.0000000E+00  5.3683946E+01  1.0537525E+00
0.0000000E+00  0.0000000E+00  5.3889632E+01  1.0138102E+00
0.0000000E+00  0.0000000E+00  5.4095318E+01  9.7387520E-01
0.0000000E+00  0.0000000E+00  5.4301003E+01  9.3395036E-01
0.0000000E+00  0.0000000E+00  5.4506689E+01  8.9403842E-01
0.0000000E+00  0.0000000E+00  5.4712375E+01  8.5415442E-01
0.0000000E+00  0.0000000E+00  5.4918060E+01  8.1463072E-01
0.0000000E+00  0.0000000E+00  5.5123746E+01  7.7559866E-01
0.0000000E+00  0.0000000E+00  5.5329431E+01  7.3703597E-01
0.0000000E+00  0.0000000E+00  5.5535117E+01  6.9892041E-01
0.0000000E+00  0.0000000E+00  5.5740803E+01  6.6122975E-01
0.0000000E+00  0.0000000E+00  5.5946488E+01  6.2394174E-01
0.0000000E+00  0.0000000E+00  5.6152174E+01  5.8703413E-01
0.0000000E+00  0.0000000E+00  5.6357860E+01  5.5048468E-01
0.0000000E+00  0.0000000E+00  5.6563545E+01  5.1427114E-01
0.0000000E+00  0.0000000E+00  5.6769231E+01  4.7837128E-01
0.0000000E+00  0.0000000E+00  5.6974916E+01  4.4276284E-01
0.0000000E+00  0.0000000E+00  5.7180602E+01  4.0742358E-01
0.0000000E+00  0.0000000E+00  5.7386288E+01  3.7233125E-01
0.0000000E+00  0.0000000E+00  5.7591973E+01  3.3871650E-01
0.0000000E+00  0.0000000E+00  5.7797659E+01  3.0806399E-01
0.0000000E+00  0.0000000E+00  5.8003344E+01  2.8018091E-01
0.0000000E+00  0.0000000E+00  5.8209030E+01  2.5486791E-01
0.0000000E+00  0.0000000E+00  5.8414716E+01  2.3192567E-01
0.0000000E+00  0.0000000E+00  5.8620401E+01  2.1115484E-01
0.0000000E+00  0.0000000E+00  5.8826087E+01  1.9235608E-01
0.0000000E+00  0.0000000E+00  5.9031773E+01  1.7533007E-01
0.0000000E+00  0.0000000E+00  5.9237458E+01  1.5987745E-01
0.0000000E+00  0.0000000E+00  5.9443144E+01  1.4579891E-01
0.0000000E+00  0.0000000E+00  5.9648829E+01  1.3289508E-01
0.0000000E+00  0.0000000E+00  5.9854515E+01  1.2096665E-01
0.0000000E+00  0.0000000E+00  6.0060201E+01  1.0981427E-01
0.0000000E+00  0.0000000E+00  6.0265886E+01  9.9847541E-02
0.0000000E+00  0.0000000E+00  6.0471572E+01  9.3050745E-02
0.0000000E+00  0.0000000E+00  6.0677258E+01  8.9510952E-02
0.0000000E+00  0.0000000E+00  6.0882943E+01  8.9132313E-02
0.0000000E+00  0.0000000E+00  6.1088629E+01  9.1818980E-02
0.0000000E+00  0.0000000E+00  6.1294314E+01  9.7475101E-02
0.0000000E+00  0.0000000E+00  6.1500000E+01  1.0600483E-01
---------------------- MESH PARAMETER ------------------------------------------
          8   order_elem     - Order of interpolation (basis) function (-)
---------------------- MATERIAL PARAMETER ---------------------------------------
"sn5_BDblade.dat"   BldFile - Name of file containing properties for blade (quoted    string)
----------------------PITCH ACTUATOR PARAMETERS---------------------------------
False         UsePitchAct -     Whether a pitch actuator should be used (flag)
      200.0     PitchJ      - Pitch actuator inertia (kg-m^2) [used only when UsePitchAct is true]    
      2.0e7     PitchK      - Pitch actuator stiffness (kg-m^2/s^2) [used only when UsePitchAct   is true]
   500000.0     PitchC      - Pitch actuator damping (kg-m^2/s) [used only when UsePitchAct is    true]
---------------------- OUTPUTS --------------------------------------------------
True          SumPrint       - Print   summary data to "<RootName>.sum" (flag)
"ES10.3E2"    OutFmt          - Format   used for text tabular output, excluding the time channel.
0                 NNodeOuts      - Number of nodes to output to file [0 - 9] (-)
          1   OutNd          - Nodes whose values   will be output  (-)
" "                  OutList        - The next line(s) contains a list of output   parameters. See OutListParameters.xlsx for a listing of available output  channels, (-)
"TipTDxr"  
"TipTDyr"  
"TipTDzr"  
END of input file (the word "END" must appear in the first 3columns of    this last OutList line)
---------------------- NODE OUTPUTS --------------------------------------------
          1   BldNd_BladesOut  - Blades to output
         99  - Blade nodes on each blade (currently unused)
"TDxr"                        OutList             - The next line(s) contains  list    of output parameters.  See s for a listing of available output channels, (-)
"TDyr"     
"TDzr"     
"AbsXg"    
"AbsYg"    
"AbsZg"    
"RDxr"     
"RDyr"     
"RDzr"     
"TVxr"     
"TVyr"     
"TVzr"     
"RVxr"     
"RVyr"     
"RVzr"     
"DFxr"     
"DFyr"     
"DFzr"     
END of input file (the word "END" must appear in the first  columns of    this last OutList line)